ADCIRC Model                   ! 32 CHARACTER RUN DESCRIPTION
53K, p = 1                     ! 24 CHARACTER RUN IDENTIFICATION
1                              ! NFOVER - NONFATAL ERROR OVERRIDE (0/1)
3                              ! NABOUT - ABREVIATED OUTPUT
10                             ! NSCREEN - UNIT 6 OUTPUT (0/1)
0                              ! IHOT - HOT START (0 = OFF, 67/68 = ON)
2                              ! ICS - COORDINATE SYSTEM (1 = CARTESIAN, 2 = POLAR)
0                              ! IM - MODEL SELECTION (0 = 2DDI)
1                              ! NOLIBF - NONLINEAR BOTTOM FRICTION (0 = LINEAR, 1 = QUAD, 2 = LIN/QUAD)
1                              ! NOLIFA - NONLINEAR FINITE AMPLITUDE (0/1 = WET/DRY OFF, 2 = WET/DRY ON)
0                              ! NOLICA - SPATIAL DERIVATIVE CONVECTIVE SELECTION PARAMETER
0                              ! NOLICAT - TIME DERIVATIVE CONVECTIVE TERM SELECTION PARAMETER
0                              ! NWP - VARIABLE BOTTOM FRICTION AND LATERAL VISCOSITY (0/1)
1                              ! NCOR - VARIABLE CORIOLIS IN SPACE OPTION PARAMETER
1                              ! NTIP - TIDAL POTENTIAL OPTION PARAMETER
0                              ! NWS - WIND STRESS AND BAROMETRIC PRESSURE OPTION PARAMETER
1                              ! NRAMP - RAMP FUNCTION OPTION
9.81                           ! G - ACCELERATION DUE TO GRAVITY - DETERMINES UNITS
0.005                          ! TAU0 - WEIGHTING FACTOR IN GWCE
1.0                            ! DT - TIME STEP (IN SECONDS)
0.00                           ! STATIM - STARTING TIME (IN DAYS)
0.00                           ! REFTIM - REFERENCE TIME (IN DAYS)
0.1                            ! RNDAY - TOTAL LENGTH OF SIMULATION (IN DAYS)
0.25                           ! DRAMP - DURATION OF RAMP FUNCTION (IN DAYS)
0.35 0.30 0.35                 ! TIME WEIGHTING FACTORS FOR THE GWCE EQUATION
10.0 0 0 0                     ! H0, NODEDRYMIN, NODEWETRMP, VELMIN
-79.0 35.0                     ! SLAM0,SFEA0 - CENTER OF CPP PROJECTION
0.0025 10.0 10.0 0.33333       ! FFACTOR,HBREAK,FTHETA,FGAMMA
5.00                           ! ESL - LATERAL EDDY VISCOSITY COEFFICIENT
0.0                            ! CORI - CORIOLIS PARAMETER - IGNORED IF NCOR = 1       
1                              ! NTIF - NUMBER OF TIDAL POTENTIAL CONSTITUENTS FORCED
O1
0.100514 0.000067597744151 0.695 1.000 0.000
1                              ! NBFR - NO. OF OPEN OCEAN BOUNDARY FORCING FREQUENCIES
O1
0.000067597744151 1.000 0.000
O1
     0.0860   231.62
     0.0858   231.58
     0.0857   231.55
     0.0855   231.51
     0.0853   231.48
     0.0851   231.44
     0.0850   231.40
     0.0848   231.37
     0.0846   231.33
     0.0845   231.30
     0.0843   231.26
     0.0841   231.23
     0.0840   231.19
     0.0838   231.15
     0.0836   231.11
     0.0834   231.07
     0.0832   231.03
     0.0830   230.99
     0.0828   230.94
     0.0826   230.89
     0.0824   230.84
     0.0821   230.78
     0.0819   230.73
     0.0817   230.68
     0.0815   230.63
     0.0813   230.59
     0.0811   230.54
     0.0809   230.49
     0.0807   230.45
     0.0805   230.40
     0.0803   230.34
     0.0801   230.29
     0.0799   230.24
     0.0797   230.20
     0.0795   230.16
     0.0793   230.13
     0.0791   230.10
     0.0789   230.06
     0.0787   230.03
     0.0784   229.98
     0.0782   229.93
     0.0779   229.89
     0.0777   229.84
     0.0774   229.81
     0.0772   229.76
     0.0770   229.72
     0.0766   229.64
     0.0763   229.59
     0.0761   229.56
     0.0759   229.53
     0.0758   229.50
     0.0756   229.46
     0.0754   229.43
     0.0752   229.39
     0.0750   229.35
     0.0747   229.31
     0.0745   229.26
     0.0743   229.23
     0.0740   229.21
     0.0737   229.16
     0.0734   229.12
     0.0732   229.09
     0.0730   229.07
     0.0728   229.06
     0.0725   229.04
     0.0724   229.03
     0.0722   229.02
     0.0720   229.00
     0.0718   228.97
     0.0715   228.93
     0.0713   228.89
     0.0711   228.85
     0.0709   228.81
     0.0707   228.78
     0.0705   228.74
     0.0703   228.71
     0.0702   228.67
     0.0700   228.64
     0.0698   228.60
     0.0697   228.55
     0.0695   228.50
     0.0693   228.45
     0.0691   228.39
     0.0689   228.33
     0.0687   228.27
     0.0685   228.21
     0.0684   228.15
     0.0681   228.08
     0.0679   228.00
     0.0677   227.87
     0.0674   227.72
     0.0673   227.62
     0.0671   227.52
     0.0669   227.43
     0.0668   227.32
     0.0666   227.22
     0.0664   227.12
     0.0662   227.03
     0.0661   226.94
     0.0659   226.83
     0.0657   226.71
     0.0655   226.60
     0.0653   226.51
     0.0652   226.42
     0.0650   226.31
     0.0648   226.21
     0.0646   226.12
     0.0645   226.03
     0.0643   225.93
     0.0641   225.82
     0.0639   225.63
     0.0636   225.43
     0.0633   225.24
     0.0631   225.05
     0.0628   224.85
     0.0625   224.66
     0.0622   224.47
     0.0620   224.28
     0.0617   224.09
     0.0614   223.90
     0.0612   223.71
     0.0609   223.49
     0.0606   223.32
     0.0604   223.13
     0.0602   222.99
     0.0600   222.84
     0.0598   222.68
     0.0596   222.52
     0.0592   222.25
     0.0590   222.04
     0.0587   221.86
     0.0584   221.64
     0.0581   221.38
     0.0578   221.15
     0.0574   220.87
     0.0571   220.57
     0.0568   220.25
     0.0565   219.97
     0.0562   219.67
     0.0558   219.34
     0.0555   219.00
     0.0552   218.71
     0.0549   218.42
     0.0546   218.13
     0.0543   217.84
     0.0540   217.55
     0.0537   217.26
     0.0534   216.97
     0.0532   216.69
     0.0530   216.42
     0.0527   216.16
     0.0525   215.86
     0.0522   215.57
     0.0520   215.27
     0.0517   214.98
     0.0515   214.68
     0.0513   214.38
     0.0510   214.03
     0.0508   213.67
     0.0505   213.32
     0.0502   212.96
     0.0500   212.60
     0.0497   212.22
     0.0495   211.82
     0.0493   211.44
     0.0490   211.07
     0.0488   210.70
     0.0485   210.30
     0.0483   209.89
     0.0481   209.48
     0.0479   209.08
     0.0477   208.67
     0.0474   208.26
     0.0473   207.86
     0.0471   207.45
     0.0469   207.01
     0.0468   206.58
     0.0466   206.15
     0.0464   205.71
     0.0463   205.29
     0.0461   204.90
     0.0460   204.51
     0.0458   204.09
     0.0457   203.67
     0.0455   203.25
     0.0454   202.83
     0.0453   202.41
     0.0452   201.99
     0.0451   201.57
     0.0450   201.10
     0.0449   200.64
     0.0448   200.18
     0.0447   199.75
     0.0446   199.33
     0.0445   198.89
     0.0445   198.44
     0.0445   197.98
     0.0444   197.56
     0.0444   197.13
     0.0443   196.71
     0.0443   196.29
     0.0443   195.87
     0.0443   195.48
     0.0443   195.10
     0.0443   194.71
     0.0443   194.37
     0.0443   194.03
     0.0443   193.69
     0.0443   193.35
     0.0443   193.01
     0.0444   192.67
     0.0444   192.33
     0.0444   191.99
     0.0445   191.65
     0.0446   191.32
     0.0446   191.00
     0.0447   190.65
     0.0448   190.29
     0.0448   189.93
     0.0449   189.63
     0.0450   189.34
     0.0451   189.01
     0.0452   188.65
     0.0453   188.28
     0.0455   187.98
     0.0456   187.69
     0.0457   187.40
     0.0459   187.12
     0.0460   186.84
     0.0462   186.62
     0.0464   186.40
     0.0466   186.19
     0.0468   185.94
     0.0470   185.71
     0.0472   185.47
     0.0475   185.17
     0.0478   184.91
     0.0480   184.73
     0.0482   184.56
     0.0485   184.40
     0.0487   184.26
     0.0490   184.12
     0.0493   184.01
     0.0495   183.91
     0.0499   183.78
     0.0503   183.62
     0.0506   183.47
     0.0510   183.29
     0.0514   183.10
     0.0517   182.92
     0.0521   182.76
     0.0525   182.61
     0.0529   182.43
     0.0532   182.23
     0.0536   182.03
     0.0538   181.74
     0.0539   181.58
     0.0540   181.40
     0.0536   181.58
     0.0529   182.13
     0.0523   182.57
     0.0517   182.99
     0.0500   183.65
     0.0394   186.45
     0.0305   190.30
     0.0225   196.63
     0.0147   210.31
     0.0101   232.06
     0.0086   250.98
     0.0083   278.02
     0.0098   300.66
     0.0125   316.54
     0.0166   324.89
     0.0219   328.58
     0.0251   330.04
     0.0283   331.17
     0.0315   332.07
     0.0347   332.81
     0.0383   332.75
     0.0421   332.46
     0.0458   332.23
     0.0496   332.02
     0.0532   331.86
     0.0567   331.72
     0.0600   331.60
     0.0624   331.47
     0.0647   331.35
     0.0672   331.22
     0.0696   331.10
     0.0713   331.01
     0.0728   330.93
     0.0751   330.81
100.0                          ! ANGINN - INNER ANGLE THRESHOLD
1 0.0 10.0 60                 ! NOUTE,TOUTSE,TOUTFE,NSPOOLE - ELEV STATION OUTPUT INFO
156                              ! NUMBER OF ELEV STATIONS
-66.1166600000000 43.8333300000000 !   1   (1) IHO	589 Yarmouth, Nova Scotia
-66.0500000000000 45.2666600000000 !   2   (2) IHO	630 St. John, New Brunswick
-66.9850000000000 44.9033300000000 !   3   (3) NOS 8410140 Eastport, Passamaquoddy Bay, ME
-67.2966700000000 44.6416700000000 !   4   (4) NOS 8411250 Culter Naval Base, Machias Bay, ME
-68.2050000000000 44.3916700000000 !   5   (5) NOS 8413320 Bar Harbor, Frenchman Bay, ME
-69.1016700000000 44.1050000000000 !   6   (6) NOS 8415490 Rockland, ME
-70.2466700000000 43.6566700000000 !   7   (7) NOS 8418150 Portland, Casco Bay, ME
-70.7116700000000 43.0716700000000 !   8       NOS 8423898 Fort Point, Newcastle Island, NH
-71.0516700000000 42.3550000000000 !   9       NOS 8443970 Boston, Boston Harbor, MA
-70.0966700000000 41.2850000000000 !  10  (10) NOS 8449130 Nantucket Island, Nantucket Sound, MA
-71.4083300000000 41.5850000000000 !  11       NOS 8454049 Quonset Point, RI
-71.3266700000000 41.5050000000000 !  12       NOS 8452660 Newport, Narragansett Bay, RI
-71.6100000000000 41.1633300000000 !  13  (11) NOS 8459681 Block Island, SW End, Block Island Sound, RI
-71.8566700000000 41.0716700000000 !  14  (12) NOS 8510321 Montauk Point Light, NY
-72.0300000000000 41.2566700000000 !  15       NOS 8510719 Silver Eel Pond, Fishers Island, NY
-72.0866700000000 41.3550000000000 !  16       NOS 8461490 New London, Thames River, CT
-72.9083300000000 41.2833300000000 !  17       NOS 8465705 New Haven, New Haven Harbor, CT
-73.1816700000000 41.1733300000000 !  18       NOS 8467150 Bridgeport, Bridgeport Harbor, CT
-73.7650000000000 40.8100000000000 !  19       NOS 8516945 Kings Point, Long Island Sound, NY
-73.7816700000000 40.7933300000000 !  20       NOS 8516990 Willets Point, Little Bay, East River, NY
-74.0550000000000 40.6066700000000 !  21       NOS 8519024 Fort Wadsworth, Staten Island, NY
-74.0100000000000 40.4666700000000 !  22  (13) NOS 8531680 Sandy Hook, NJ
-74.4183300000000 39.3550000000000 !  23  (14) NOS 8534720 Atlantic City, Atlantic Ocean, NJ
-74.9600000000000 38.9683300000000 !  24  (15) NOS 8536110 Cape May, Cape May Canal, Delaware Bay, NJ
-75.3750000000000 39.3050000000000 !  25       NOS 8537121 Ship John Shoal, Delaware River, NJ
-75.1133300000000 38.9866700000000 !  26       NOS 8555889 Brandywine Shoal Light, Delaware Bay, DE
-75.1200000000000 38.7816700000000 !  27  (16) NOS 8557380 Lewes, Ft. Miles, DE
-75.0700000000000 38.6100000000000 !  28       NOS 8558690 Indian River Inlet, DE
-75.0833300000000 38.3266700000000 !  29       NOS 8570280 Ocean City, Fishing Pier, MD
-75.4050000000000 37.9066700000000 !  30       NOS 8630308 Chincoteague Channel, South End, VA
-75.9883300000000 37.1666700000000 !  31  (17) NOS 8632200 Kiptopeke, Chesapeake Bay, VA
-76.4650000000000 37.9950000000000 !  32       NOS 8635750 Lewisetta, Potomac River, VA
-76.4783300000000 37.2266700000000 !  33       NOS 8637689 Yorktown U.S. Coast Guard Training Center, York River, VA
-76.1133300000000 36.9666700000000 !  34  (21) NOS 8638863 Chesapeake Bay Bridge Tunnel, VA
-75.7466700000000 36.1833300000000 !  35  (22) NOS 8651370 Duck, FRF Pier, NC
-75.6350000000000 35.2233300000000 !  36  (23) NOS 8654400 Cape Hatteras Fishing Pier, NC
-76.6700000000000 34.7200000000000 !  37       NOS 8656483 Beaufort, Duke Marine Lab, NC
-77.7950000000000 34.2100000000000 !  38       NOS 8658163 Wrightsville Beach, NC
-78.0166600000000 33.9150000000000 !  39  (24) IHO     428 South Port, NC
-78.5066700000000 33.8650000000000 !  40       NOS 8659897 Sunset Beach Pier, Atlantic Ocean, NC
-78.9183300000000 33.6550000000000 !  41  (25) NOS 8661070 Springmaid Pier, Atlantic Ocean, SC
-79.1866700000000 33.3516700000000 !  42       NOS 8662245 Oyster Landing, Crab Haul Creek, SC
-79.7066700000000 32.8566700000000 !  43       NOS 8664941 South Capers Island, Capers Creek, SC
-79.9250000000000 32.7816700000000 !  44  (26) NOS 8665530 Charleston, Cooper River Entrance, SC
-80.4650000000000 32.3400000000000 !  45       NOS 8668498 Hunting Island Pier, Fripps Inlet, SC
-80.9016700000000 32.0333300000000 !  46       NOS 8670870 Fort Pulaski, Savannah River, GA
-81.3966700000000 31.1316700000000 !  47       NOS 8677344 St. Simons Lighthouse, St. Simons Island, GA
-81.5150000000000 30.7966700000000 !  48       NOS 8679511 Kings Bay, GA
-81.4650000000000 30.6716700000000 !  49       NOS 8720030 Fernandina Beach, Amelia River, FL
-81.4133300000000 30.4000000000000 !  50       NOS 8720211 WWTD, Mayport Naval Station, St. Johns River, FL
-81.4300000000000 30.3966700000000 !  51 	      NOS 8720218 Bar Pilots Dock, St. Johns River, FL
-81.4316700000000 30.3933300000000 !  52  (27) NOS 8720220 Mayport, FL
-81.3000000000000 29.9166700000000 !  53       NOS 8720554 Vilano Beach (ICWW), FL
-81.3066700000000 29.8666700000000 !  54       NOS 8720582 State Road 312, Matanzas River, FL
-81.2633300000000 29.8566700000000 !  55  (28) NOS 8720587 St. Augustine Beach, Atlantic Ocean, FL
-81.0050000000000 29.2283300000000 !  56  (29) NOS 8721020 Daytona Beach, Atlantic Ocean, FL
-80.5933300000000 28.4150000000000 !  57       NOS 8721604 Trident Pier, Port Canaveral, FL
-80.6016700000000 28.4083300000000 !  58  (30) NOS 8721608 Canaveral Harbor Entrance, FL
-80.0333300000000 26.6116700000000 !  59  (31) NOS 8722670 Lake Worth Pier, Atlantic Ocean, FL
-80.1200000000000 25.9033300000000 !  60  (32) NOS 8723080 Haulover Pier, North Miami Beach, FL
-80.1316700000000 25.7683300000000 !  61  (33) NOS 8723170 Miami Beach, City Pier, FL
-80.1300000000000 25.7633300000000 !  62       NOS 8723178 Miami Beach, Government Cut, FL
-80.1616700000000 25.7316700000000 !  63  (34) NOS 8723214 Virginia Key, Biscayne Bay, FL
-81.0166700000000 24.7183300000000 !  64  (35) NOS 8723962 Key Colony Beach, FL
-81.8083300000000 24.5533300000000 !  65  (36) NOS 8724580 Key West, FL
-82.9200000000000 24.6316700000000 !  66       NOS 8724698 Loggerhead Key, Dry Tortugas, FL
-81.8066700000000 26.1300000000000 !  67  (37) NOS 8725110 Naples, Gulf of Mexico, FL
-82.5633300000000 27.6366700000000 !  68       NOS 8726384 Port Manatee, Tampa Bay, FL
-82.4250000000000 27.9133300000000 !  69       NOS 8726667 CSX Rockport, McKay Bay Entrance, FL
-82.5533300000000 27.8583300000000 !  70       NOS 8726607 Port Tampa, Old Tampa Bay, FL
-82.6266700000000 27.7600000000000 !  71       NOS 8726520 St. Petersburg, Tampa Bay, FL
-82.8316700000000 27.9783300000000 !  72  (38) NOS 8726724 Clearwater Beach, Gulf of Mexico, FL
-82.7233300000000 28.8700000000000 !  73       NOS 8727333 Shark River, Crystal Bay, FL
-83.0316700000000 29.1350000000000 !  74  (39) NOS 8727520 Cedar Key, Gulf of Mexico, FL
-84.1783300000000 30.0783300000000 !  75  (40) NOS 8728130 St. Marks Lighthouse, Apalachee Bay, FL
-84.2900000000000 30.0600000000000 !  76       NOS 8728229 Shell Point, Walker Creek, FL
-84.5116700000000 29.9150000000000 !  77  (41) NOS 8728360 Turkey Point, FL
-84.9816700000000 29.7266700000000 !  78       NOS 8728690 Apalachicola, Apalachicola River, FL
-85.6666700000000 30.1516700000000 !  79       NOS 8729108 Panama City, St. Andrew Bay, FL
-85.7500000000000 30.1666600000000 !  80  (42) IHO     400 Alligator Bayou, FL
-85.8783300000000 30.2133300000000 !  81       NOS 8729210 Panama City Beach, Gulf of Mexico, FL
-86.8650000000000 30.3766700000000 !  82  (43) NOS 8729678 Navarre Beach, FL
-87.2116700000000 30.4033300000000 !  83       NOS 8729840 Pensacola, Pensacola Bay, FL
-88.0750000000000 30.2500000000000 !  84  (44) NOS 8735180 Dauphin Island, Mobile Bay, AL
-88.0433300000000 30.7083300000000 !  85       NOS 8737048 Mobile State Docks, Mobile River, AL
-88.9033300000000 30.4116700000000 !  86       NOS 8744117 Biloxi, Bay of Biloxi, MS
-89.0816700000000 30.3600000000000 !  87  (46) NOS 8745557 Gulfport Harbor, Mississippi Sound, MS
-89.1400000000000 28.9900000000000 !  88       NOS 8760551 South Pass, LA
-89.4066700000000 28.9316700000000 !  89  (47) NOS 8760922 Pilot Station East, Southwest Pass, LA
-89.4183300000000 28.9250000000000 !  90       NOS 8760943 Pilot Station, Southwest Pass, LA
-89.9566700000000 29.2633300000000 !  91  (48) NOS 8761724 Grand Isle, East Point, LA
-91.3850000000000 29.3716700000000 !  92       NOS 8764311 Eugene Island, LA
-91.7500000000000 29.2866600000000 !  93  (49) IHO     378 Point au Fer, LA
-93.3433300000000 29.7650000000000 !  94       NOS 8768094 Calcasieu Pass, East Jetty, LA
-93.6400000000000 29.4983300000000 !  95       NOS 8771081 Sabine Offshore, TX
-94.7250000000000 29.3583300000000 !  96       NOS 8771341 Galveston Bay Entrance, North Jetty, TX
-94.7883300000000 29.2850000000000 !  97  (50) NOS 8771510 Galveson Pleasure Pier, Gulf of Mexico, TX
-95.3083300000000 28.9483300000000 !  98       NOS 8772440 Freeport, Dow Barge Canal, TX
-97.0500000000000 27.8266700000000 !  99  (51) NOS 8775270 Port Aransas, H. Caldwell Pier, TX
-97.2166700000000 27.5800000000000 ! 100  (52) NOS 8775870 Corpus Christi, Gulf of Mexico, TX
-97.1566700000000 26.0683300000000 ! 101       NOS 8779750 Padre Island, Brazos Santiago Pass, TX
-97.7950000000000 22.2616700000000 ! 102       NOS 9500966 Madero, Tampico Harbor, Mexico
-94.4116600000000 18.1483300000000 ! 103  (56) IHO     276 Coatracoalcos, Mexico
-90.5333300000000 19.8333300000000 ! 104  (57) IHO     289 Campeche, Mexico
-89.6500000000000 21.3000000000000 ! 105  (58) IHO     295 Progreso, Yucatan, Mexico
-87.8700000000000 15.8350000000000 ! 106  (61) NOS 9650593 Puerto Cortes, Honduras
-83.3666600000000 14.0166600000000 ! 107  (62) IHO     257 Puerto Cabezas, Nicaragua
-83.0333300000000 10.0000000000000 ! 108  (63) IHO     187 Puerto Limon, Costa Rica
-79.9166600000000  9.3500000000000 ! 109  (64) IHO     184 Cristobal, Panama
-75.5333300000000 10.3833300000000 ! 110  (65) IHO     196 Cartagena, Colombia
-68.9333300000000 12.1000000000000 ! 111       IHO     236 Willemstad, Curacao Antilles
-66.9333300000000 10.6166600000000 ! 112  (67) IHO     200 La Guaira, Venezuela
-64.1666600000000 10.4500000000000 ! 113  (68) IHO     198 Cumana, Venezuela
-61.5166600000000 10.6500000000000 ! 114  (69) IHO     202 Port of Spain, Trinidad and Tobago
-61.0000000000000 14.0166600000000 ! 115  (70) IHO     256 Castries, St. Lucia, B.W.I.
-61.0500000000000 14.5833300000000 ! 116  (71) IHO     259 Fort de France, Martinique
-64.8833300000000 16.5333300000000 ! 117       IHO     269 East Caribbean Sea
-64.7533300000000 17.6966700000000 ! 118  (73) NOS 9751401 Lime Tree Bay, St. Croix, Virgin Islands
-64.8700000000000 18.3200000000000 ! 119       NOS 9751567 Benner Bay
-64.9200000000000 18.3350000000000 ! 120       NOS 9751639 Charlotte Amalie, St. Thomas, Virgin Islands
-66.1166700000000 18.4583300000000 ! 121  (74) NOS 9755371 San Juan, La Puntilla, San Juan Bay, PR
-66.1583300000000 17.9283300000000 ! 122       NOS 9755679 Las Mareas, PR
-66.7616700000000 17.9766700000000 ! 123       NOS 9758053 Punta Guayanilla, PR
-67.0466700000000 17.9716700000000 ! 124  (75) NOS 9759110 Magueyes Island, Caribbean Sea, PR
-69.8833300000000 18.4666600000000 ! 125  (76) IHO     283 Cuidad, Dominican Republic
-70.6833300000000 19.7500000000000 ! 126  (77) IHO     288 Puerto Plato, Dominican Republic
-72.3500000000000 18.5500000000000 ! 127  (78) IHO     284 Port au Prince, Haiti
-75.1500000000000 19.9000000000000 ! 128  (79) IHO     290 Guantanomo Bay, Cuba
-76.1166600000000 21.1000000000000 ! 129  (80) IHO     294 Gibara, Cuba
-79.9833300000000 21.7500000000000 ! 130  (81) IHO     298 Casilda, Cuba
-82.3666600000000 23.1333300000000 ! 131  (82) IHO     303 Havana, Cuba
-78.9966700000000 26.7100000000000 ! 132  (83) NOS 9710441 Settlement Point, Grand Bahamas, Bahamas
-77.3500000000000 25.0833300000000 ! 133  (84) IHO     315 Nassau, Bahamas
-76.1500000000000 24.7666600000000 ! 134  (85) IHO     313 Eleuthera, Bahamas
-70.9000000000000 40.3000000000000 ! 135 (101) IHO     527 Atlantic Ocean
-71.3666600000000 39.1666600000000 ! 136  (98) IHO     509 Atlantic Ocean
-72.1666600000000 39.2166600000000 ! 137  (99) IHO     510 Atlantic Ocean
-73.0833300000000 37.3666600000000 ! 138  (97) IHO     464 Atlantic Ocean
-75.6166600000000 32.6833300000000 ! 139  (96) IHO     422 Atlantic Ocean
-76.4166600000000 30.4333300000000 ! 140  (94) IHO      41 Atlantic Ocean
-76.8000000000000 28.4500000000000 ! 141  (93) IHO     360 Atlantic Ocean
-76.7833300000000 28.0166600000000 ! 142  (90) IHO     355 Atlantic Ocean
-69.3333300000000 26.4666600000000 ! 143  (89) IHO     338 Atlantic Ocean
-67.5333300000000 28.2333300000000 ! 144  (92) IHO     359 Atlantic Ocean
-69.7500000000000 28.1333300000000 ! 145  (91) IHO     357 Atlantic Ocean
-84.2500000000000 26.7000000000000 ! 146  (60) IHO     348 Florida Bank
-89.6500000000000 24.7666600000000 ! 147  (59) IHO     312 Middle of Gulf of Mexico
-64.7033300000000 32.3733300000000 ! 148       NOS 2695540 Bermuda Esso Pier, St. Georges Island
-64.6950000000000 32.3700000000000 ! 149  (87) IHO         St. Davids Island, Bermuda
-64.8333300000000 32.3166600000000 ! 150  (86) IHO     417 Ireland Island, Bermuda
-64.4333300000000 32.0166600000000 ! 151       IHO     415 Atlantic Ocean near Bermuda
-90.3683300000000 30.0500000000000 ! 152       NOS 8762372 East Bank 1, Norco, Bayou Labranche, LA
-90.0995000000000 30.1626000000000 ! 153                   Lake Pontchartrain (Center)
-90.1595000000000 30.3518000000000 ! 154                   Lake Pontchartrain (North End)
-89.9665000000000 30.1926000000000 ! 155                   Lake Pontchartrain (East End)
-90.3015000000000 30.2482000000000 ! 156                   Lake Pontchartrain (West End)
0 0.0 0.0 0                    ! NOUTV,TOUTSV,TOUTFV,NSPOOLV - VEL STATION OUTPUT INFO
0                              ! TOTAL NUMBER OF VELOCITY RECORDING STATIONS
0 0.0 0.42 500                    ! NOUTGE,TOUTSGE,TOUTFGE,NSPOOLGE - GLOBAL ELEVATION OUTPUT
0 0.0 0.42 500                    ! NOUTGV,TOUTSGV,TOUTFGV,NSPOOLGV - GLOBAL VELOCITY OUTPUT
6                              ! NHARFR - NUMBER OF CONSTITUENTS IN THE HARM. ANALYSIS
STEADY                         ! HAFNAM - ALPHA DESCRIPTOR FOR CONSTITUENT NAME
0.000000000000000 1.0 0.0      ! HAFREQ, HAFF, HAFACE
O1
0.000067597744151 1.0 0.0
02
0.000135195488302 1.0 0.0
03
0.000202793232453 1.0 0.0
04
0.000270390976604 1.0 0.0
05
0.000337988720755 1.0 0.0
1.0 4.0 360 0.0                ! THAS,THAF,NHAINC,FMV - HARMONIC ANALYSIS PARAMETERS
0 0 0 0                        ! NHASE,NHASV,NHAGE,NHAGV - OUTPUT TO UNIT 51,52,53,54 (0/1)
0 8640                         ! NHSTAR,NHSINC - HOT START FILE GENERATION PARAMETERS
1 0 1.0E-8 25 0                ! ITITER, ISLDIA, CONVCR, ITMAX, ILUMP - ALGEBRAIC SOLVER INFO
